
     RDKit          3D

 71 76  0  0  0  0  0  0  0  0999 V2000
   10.2851   -1.3408   -1.1478 C   0  0  0  0  0  0  0  0  0  0  0  0
    9.0367   -0.7390   -0.6690 N   0  0  0  0  0  0  0  0  0  0  0  0
    8.7216   -1.2141    0.7036 C   0  0  0  0  0  0  0  0  0  0  0  0
    7.2257   -1.0936    1.0578 C   0  0  0  0  0  0  0  0  0  0  0  0
    6.5604    0.0420    0.2602 C   0  0  0  0  0  0  0  0  0  0  0  0
    5.1073    0.1876    0.6574 C   0  0  0  0  0  0  0  0  0  0  0  0
    4.6866    1.3083    1.3907 C   0  0  0  0  0  0  0  0  0  0  0  0
    3.3471    1.4503    1.7607 C   0  0  0  0  0  0  0  0  0  0  0  0
    2.4055    0.4808    1.3914 C   0  0  0  0  0  0  0  0  0  0  0  0
    0.9854    0.6574    1.7309 C   0  0  0  0  0  0  0  0  0  0  0  0
    0.5941    0.8867    3.0578 C   0  0  0  0  0  0  0  0  0  0  0  0
   -0.7595    1.0148    3.3771 C   0  0  0  0  0  0  0  0  0  0  0  0
   -1.7320    0.9188    2.3686 C   0  0  0  0  0  0  0  0  0  0  0  0
   -1.3373    0.7538    1.0359 C   0  0  0  0  0  0  0  0  0  0  0  0
    0.0177    0.5947    0.7202 C   0  0  0  0  0  0  0  0  0  0  0  0
   -2.3664    0.7175   -0.0174 C   0  0  0  0  0  0  0  0  0  0  0  0
   -2.0622    1.0060   -1.2056 O   0  0  0  0  0  0  0  0  0  0  0  0
   -3.7371    0.4322    0.3416 N   0  0  0  0  0  0  0  0  0  0  0  0
   -4.7144    0.2070   -0.7543 C   0  0  0  0  0  0  0  0  0  0  0  0
   -5.8828   -0.7024   -0.4020 C   0  0  0  0  0  0  0  0  0  0  0  0
   -6.7052   -0.3565    0.4918 O   0  0  0  0  0  0  0  0  0  0  0  0
   -6.1383   -1.8711   -1.1921 N   0  0  0  0  0  0  0  0  0  0  0  0
   -7.4129   -2.5185   -1.1832 C   0  0  0  0  0  0  0  0  0  0  0  0
   -8.0848   -2.8054   -2.3144 N   0  0  0  0  0  0  0  0  0  0  0  0
   -9.2833   -3.3897   -2.0349 C   0  0  0  0  0  0  0  0  0  0  0  0
   -9.5015   -3.6682   -0.6918 C   0  0  0  0  0  0  0  0  0  0  0  0
   -8.1815   -3.1130    0.1845 S   0  0  0  0  0  0  0  0  0  0  0  0
   -5.2325    1.5158   -1.3060 C   0  0  0  0  0  0  0  0  0  0  0  0
   -5.5783    2.5866   -0.4563 C   0  0  0  0  0  0  0  0  0  0  0  0
   -6.1292    3.7569   -0.9940 C   0  0  0  0  0  0  0  0  0  0  0  0
   -6.3467    3.8617   -2.3750 C   0  0  0  0  0  0  0  0  0  0  0  0
   -6.0234    2.7965   -3.2201 C   0  0  0  0  0  0  0  0  0  0  0  0
   -6.2478    2.8946   -4.5580 F   0  0  0  0  0  0  0  0  0  0  0  0
   -5.4777    1.6237   -2.6874 C   0  0  0  0  0  0  0  0  0  0  0  0
   -4.0634    0.2289    1.7687 C   0  0  0  0  0  0  0  0  0  0  0  0
   -3.1933    1.1117    2.6805 C   0  0  0  0  0  0  0  0  0  0  0  0
    2.8240   -0.6503    0.6788 C   0  0  0  0  0  0  0  0  0  0  0  0
    4.1655   -0.8081    0.3332 C   0  0  0  0  0  0  0  0  0  0  0  0
    6.7283   -0.1527   -1.2702 C   0  0  0  0  0  0  0  0  0  0  0  0
    7.9381   -1.0298   -1.6095 C   0  0  0  0  0  0  0  0  0  0  0  0
   10.5574   -0.9182   -2.1408 H   0  0  0  0  0  0  0  0  0  0  0  0
   10.1832   -2.4486   -1.2445 H   0  0  0  0  0  0  0  0  0  0  0  0
   11.1151   -1.1044   -0.4449 H   0  0  0  0  0  0  0  0  0  0  0  0
    9.3038   -0.5995    1.4206 H   0  0  0  0  0  0  0  0  0  0  0  0
    9.0222   -2.2790    0.8479 H   0  0  0  0  0  0  0  0  0  0  0  0
    6.7222   -2.0579    0.8192 H   0  0  0  0  0  0  0  0  0  0  0  0
    7.1111   -0.9147    2.1519 H   0  0  0  0  0  0  0  0  0  0  0  0
    7.0956    0.9799    0.5320 H   0  0  0  0  0  0  0  0  0  0  0  0
    5.3975    2.0777    1.6704 H   0  0  0  0  0  0  0  0  0  0  0  0
    3.0394    2.3374    2.3044 H   0  0  0  0  0  0  0  0  0  0  0  0
    1.3373    0.9463    3.8495 H   0  0  0  0  0  0  0  0  0  0  0  0
   -1.0515    1.1759    4.4066 H   0  0  0  0  0  0  0  0  0  0  0  0
    0.3241    0.4383   -0.3113 H   0  0  0  0  0  0  0  0  0  0  0  0
   -4.1658   -0.3034   -1.5755 H   0  0  0  0  0  0  0  0  0  0  0  0
   -5.5167   -2.0583   -2.0136 H   0  0  0  0  0  0  0  0  0  0  0  0
   -9.9687   -3.7040   -2.8147 H   0  0  0  0  0  0  0  0  0  0  0  0
  -10.3744   -4.1640   -0.2794 H   0  0  0  0  0  0  0  0  0  0  0  0
   -5.4268    2.5157    0.6173 H   0  0  0  0  0  0  0  0  0  0  0  0
   -6.3903    4.5808   -0.3412 H   0  0  0  0  0  0  0  0  0  0  0  0
   -6.7769    4.7690   -2.7873 H   0  0  0  0  0  0  0  0  0  0  0  0
   -5.2563    0.7959   -3.3504 H   0  0  0  0  0  0  0  0  0  0  0  0
   -5.1192    0.4916    1.9786 H   0  0  0  0  0  0  0  0  0  0  0  0
   -3.8983   -0.8390    2.0286 H   0  0  0  0  0  0  0  0  0  0  0  0
   -3.4016    0.8460    3.7379 H   0  0  0  0  0  0  0  0  0  0  0  0
   -3.4633    2.1792    2.5206 H   0  0  0  0  0  0  0  0  0  0  0  0
    2.1127   -1.4129    0.3981 H   0  0  0  0  0  0  0  0  0  0  0  0
    4.4681   -1.7019   -0.1981 H   0  0  0  0  0  0  0  0  0  0  0  0
    6.8634    0.8469   -1.7397 H   0  0  0  0  0  0  0  0  0  0  0  0
    5.8302   -0.6078   -1.7403 H   0  0  0  0  0  0  0  0  0  0  0  0
    7.6493   -2.1040   -1.5469 H   0  0  0  0  0  0  0  0  0  0  0  0
    8.2395   -0.8166   -2.6573 H   0  0  0  0  0  0  0  0  0  0  0  0
  1  2  1  0
  2  3  1  0
  3  4  1  0
  4  5  1  0
  5  6  1  0
  6  7  2  0
  7  8  1  0
  8  9  2  0
  9 10  1  0
 10 11  2  0
 11 12  1  0
 12 13  2  0
 13 14  1  0
 14 15  2  0
 14 16  1  0
 16 17  2  0
 16 18  1  0
 18 19  1  0
 19 20  1  0
 20 21  2  0
 20 22  1  0
 22 23  1  0
 23 24  2  0
 24 25  1  0
 25 26  2  0
 26 27  1  0
 19 28  1  0
 28 29  2  0
 29 30  1  0
 30 31  2  0
 31 32  1  0
 32 33  1  0
 32 34  2  0
 18 35  1  0
 35 36  1  0
  9 37  1  0
 37 38  2  0
  5 39  1  0
 39 40  1  0
 40  2  1  0
 38  6  1  0
 15 10  1  0
 27 23  1  0
 34 28  1  0
 36 13  1  0
  1 41  1  0
  1 42  1  0
  1 43  1  0
  3 44  1  0
  3 45  1  0
  4 46  1  0
  4 47  1  0
  5 48  1  0
  7 49  1  0
  8 50  1  0
 11 51  1  0
 12 52  1  0
 15 53  1  0
 19 54  1  0
 22 55  1  0
 25 56  1  0
 26 57  1  0
 29 58  1  0
 30 59  1  0
 31 60  1  0
 34 61  1  0
 35 62  1  0
 35 63  1  0
 36 64  1  0
 36 65  1  0
 37 66  1  0
 38 67  1  0
 39 68  1  0
 39 69  1  0
 40 70  1  0
 40 71  1  0
M  END
$$$$
