
     RDKit          3D

 88 93  0  0  0  0  0  0  0  0999 V2000
    2.1053   -3.8425    0.2602 C   0  0  0  0  0  0  0  0  0  0  0  0
    1.5628   -2.8323    1.2689 C   0  0  0  0  0  0  0  0  0  0  0  0
    1.2623   -1.5064    0.6053 C   0  0  0  0  0  0  0  0  0  0  0  0
   -0.0662   -1.2046    0.2616 C   0  0  0  0  0  0  0  0  0  0  0  0
   -0.3904   -0.0050   -0.3915 C   0  0  0  0  0  0  0  0  0  0  0  0
   -1.7515    0.2847   -0.7510 N   0  0  0  0  0  0  0  0  0  0  0  0
   -2.8596    0.1386    0.1475 C   0  0  0  0  0  0  0  0  0  0  0  0
   -2.6635   -0.2260    1.4426 N   0  0  0  0  0  0  0  0  0  0  0  0
   -3.7020   -0.3077    2.3121 C   0  0  0  0  0  0  0  0  0  0  0  0
   -4.9974   -0.0050    1.8901 C   0  0  0  0  0  0  0  0  0  0  0  0
   -6.4003    0.0289    3.1963 Br  0  0  0  0  0  0  0  0  0  0  0  0
   -5.1916    0.3498    0.5407 C   0  0  0  0  0  0  0  0  0  0  0  0
   -6.4814    0.7075    0.0232 N   0  0  0  0  0  0  0  0  0  0  0  0
   -7.6764   -0.0660    0.2337 C   0  0  0  0  0  0  0  0  0  0  0  0
   -7.5905   -1.4796    0.3503 C   0  0  0  0  0  0  0  0  0  0  0  0
   -8.7445   -2.2590    0.5196 C   0  0  0  0  0  0  0  0  0  0  0  0
   -9.9689   -1.6057    0.5585 C   0  0  0  0  0  0  0  0  0  0  0  0
  -10.0729   -0.2564    0.4417 C   0  0  0  0  0  0  0  0  0  0  0  0
   -8.9512    0.5678    0.2889 C   0  0  0  0  0  0  0  0  0  0  0  0
   -9.1396    2.3602    0.1413 P   0  0  0  0  0  0  0  0  0  0  0  0
  -10.6701    2.9681    0.9080 C   0  0  0  0  0  0  0  0  0  0  0  0
   -9.1612    2.8105   -1.6161 C   0  0  0  0  0  0  0  0  0  0  0  0
   -7.9779    3.0543    0.8176 O   0  0  0  0  0  0  0  0  0  0  0  0
  -11.4086    0.0964    0.5060 O   0  0  0  0  0  0  0  0  0  0  0  0
  -12.1832   -1.0939    0.6867 C   0  0  0  0  0  0  0  0  0  0  0  0
  -11.2252   -2.1590    0.7059 O   0  0  0  0  0  0  0  0  0  0  0  0
   -4.1146    0.4305   -0.2845 N   0  0  0  0  0  0  0  0  0  0  0  0
    0.6278    0.8931   -0.7462 C   0  0  0  0  0  0  0  0  0  0  0  0
    0.2776    2.0829   -1.4043 O   0  0  0  0  0  0  0  0  0  0  0  0
    1.2049    3.0743   -1.8313 C   0  0  0  0  0  0  0  0  0  0  0  0
    1.9593    0.5900   -0.4172 C   0  0  0  0  0  0  0  0  0  0  0  0
    2.2858   -0.5968    0.2550 C   0  0  0  0  0  0  0  0  0  0  0  0
    3.6631   -0.8545    0.5766 N   0  0  0  0  0  0  0  0  0  0  0  0
    4.6235   -0.9865   -0.5282 C   0  0  0  0  0  0  0  0  0  0  0  0
    5.9697   -1.5438   -0.0405 C   0  0  0  0  0  0  0  0  0  0  0  0
    6.5487   -0.7972    1.2116 C   0  0  0  0  0  0  0  0  0  0  0  0
    7.7931   -0.0090    0.9965 N   0  0  0  0  0  0  0  0  0  0  0  0
    7.8120    0.8470   -0.1960 C   0  0  0  0  0  0  0  0  0  0  0  0
    8.9517    0.0600   -0.8434 C   0  0  0  0  0  0  0  0  0  0  0  0
   10.1965    0.8450   -0.9878 N   0  0  0  0  0  0  0  0  0  0  0  0
   11.3130   -0.0505   -1.3449 C   0  0  0  0  0  0  0  0  0  0  0  0
   10.0379    1.8487   -2.0554 C   0  0  0  0  0  0  0  0  0  0  0  0
    8.9061   -0.7814    0.4329 C   0  0  0  0  0  0  0  0  0  0  0  0
    5.5030    0.0975    1.9059 C   0  0  0  0  0  0  0  0  0  0  0  0
    4.1361   -0.5854    1.9418 C   0  0  0  0  0  0  0  0  0  0  0  0
    3.1150   -3.5394   -0.0818 H   0  0  0  0  0  0  0  0  0  0  0  0
    1.4279   -3.9166   -0.6169 H   0  0  0  0  0  0  0  0  0  0  0  0
    2.1834   -4.8424    0.7350 H   0  0  0  0  0  0  0  0  0  0  0  0
    0.6425   -3.2514    1.7275 H   0  0  0  0  0  0  0  0  0  0  0  0
    2.2877   -2.7042    2.0958 H   0  0  0  0  0  0  0  0  0  0  0  0
   -0.8517   -1.9150    0.4848 H   0  0  0  0  0  0  0  0  0  0  0  0
   -1.9300    0.7561   -1.6665 H   0  0  0  0  0  0  0  0  0  0  0  0
   -3.5146   -0.5808    3.3416 H   0  0  0  0  0  0  0  0  0  0  0  0
   -6.5086    1.4620   -0.6974 H   0  0  0  0  0  0  0  0  0  0  0  0
   -6.6301   -1.9748    0.3024 H   0  0  0  0  0  0  0  0  0  0  0  0
   -8.6852   -3.3358    0.6096 H   0  0  0  0  0  0  0  0  0  0  0  0
  -10.6471    4.0769    0.9433 H   0  0  0  0  0  0  0  0  0  0  0  0
  -11.5499    2.6517    0.3103 H   0  0  0  0  0  0  0  0  0  0  0  0
  -10.7500    2.5706    1.9409 H   0  0  0  0  0  0  0  0  0  0  0  0
  -10.0325    2.3316   -2.1087 H   0  0  0  0  0  0  0  0  0  0  0  0
   -9.2437    3.9123   -1.7101 H   0  0  0  0  0  0  0  0  0  0  0  0
   -8.2271    2.4668   -2.1031 H   0  0  0  0  0  0  0  0  0  0  0  0
  -12.7282   -1.0553    1.6523 H   0  0  0  0  0  0  0  0  0  0  0  0
  -12.8900   -1.2229   -0.1587 H   0  0  0  0  0  0  0  0  0  0  0  0
    1.9128    2.6403   -2.5667 H   0  0  0  0  0  0  0  0  0  0  0  0
    1.7604    3.4805   -0.9611 H   0  0  0  0  0  0  0  0  0  0  0  0
    0.6511    3.9023   -2.3184 H   0  0  0  0  0  0  0  0  0  0  0  0
    2.7520    1.2822   -0.6649 H   0  0  0  0  0  0  0  0  0  0  0  0
    4.7738    0.0032   -1.0063 H   0  0  0  0  0  0  0  0  0  0  0  0
    4.2117   -1.6725   -1.3007 H   0  0  0  0  0  0  0  0  0  0  0  0
    6.6721   -1.5616   -0.8958 H   0  0  0  0  0  0  0  0  0  0  0  0
    5.8063   -2.6098    0.2351 H   0  0  0  0  0  0  0  0  0  0  0  0
    6.8020   -1.5894    1.9540 H   0  0  0  0  0  0  0  0  0  0  0  0
    6.8842    0.8318   -0.8010 H   0  0  0  0  0  0  0  0  0  0  0  0
    8.0913    1.8827    0.0952 H   0  0  0  0  0  0  0  0  0  0  0  0
    8.6516   -0.4989   -1.7587 H   0  0  0  0  0  0  0  0  0  0  0  0
   11.5013   -0.7888   -0.5371 H   0  0  0  0  0  0  0  0  0  0  0  0
   11.1040   -0.6013   -2.2899 H   0  0  0  0  0  0  0  0  0  0  0  0
   12.2498    0.5344   -1.4684 H   0  0  0  0  0  0  0  0  0  0  0  0
   10.9647    2.4543   -2.1520 H   0  0  0  0  0  0  0  0  0  0  0  0
    9.2200    2.5589   -1.8143 H   0  0  0  0  0  0  0  0  0  0  0  0
    9.8161    1.3682   -3.0346 H   0  0  0  0  0  0  0  0  0  0  0  0
    9.8054   -0.6618    1.0735 H   0  0  0  0  0  0  0  0  0  0  0  0
    8.6729   -1.8530    0.2417 H   0  0  0  0  0  0  0  0  0  0  0  0
    5.4059    1.0654    1.3647 H   0  0  0  0  0  0  0  0  0  0  0  0
    5.8331    0.3227    2.9443 H   0  0  0  0  0  0  0  0  0  0  0  0
    4.2168   -1.5394    2.5051 H   0  0  0  0  0  0  0  0  0  0  0  0
    3.4213    0.0787    2.4755 H   0  0  0  0  0  0  0  0  0  0  0  0
  1  2  1  0
  2  3  1  0
  3  4  2  0
  4  5  1  0
  5  6  1  0
  6  7  1  0
  7  8  2  0
  8  9  1  0
  9 10  2  0
 10 11  1  0
 10 12  1  0
 12 13  1  0
 13 14  1  0
 14 15  2  0
 15 16  1  0
 16 17  2  0
 17 18  1  0
 18 19  2  0
 19 20  1  0
 20 21  1  0
 20 22  1  0
 20 23  2  0
 18 24  1  0
 24 25  1  0
 25 26  1  0
 12 27  2  0
  5 28  2  0
 28 29  1  0
 29 30  1  0
 28 31  1  0
 31 32  2  0
 32 33  1  0
 33 34  1  0
 34 35  1  0
 35 36  1  0
 36 37  1  0
 37 38  1  0
 38 39  1  0
 39 40  1  0
 40 41  1  0
 40 42  1  0
 39 43  1  0
 36 44  1  0
 44 45  1  0
 32  3  1  0
 45 33  1  0
 27  7  1  0
 43 37  1  0
 19 14  1  0
 26 17  1  0
  1 46  1  0
  1 47  1  0
  1 48  1  0
  2 49  1  0
  2 50  1  0
  4 51  1  0
  6 52  1  0
  9 53  1  0
 13 54  1  0
 15 55  1  0
 16 56  1  0
 21 57  1  0
 21 58  1  0
 21 59  1  0
 22 60  1  0
 22 61  1  0
 22 62  1  0
 25 63  1  0
 25 64  1  0
 30 65  1  0
 30 66  1  0
 30 67  1  0
 31 68  1  0
 34 69  1  0
 34 70  1  0
 35 71  1  0
 35 72  1  0
 36 73  1  0
 38 74  1  0
 38 75  1  0
 39 76  1  0
 41 77  1  0
 41 78  1  0
 41 79  1  0
 42 80  1  0
 42 81  1  0
 42 82  1  0
 43 83  1  0
 43 84  1  0
 44 85  1  0
 44 86  1  0
 45 87  1  0
 45 88  1  0
M  END
$$$$
